/*--------------------------------*- C++ -*----------------------------------*\
| =========                 |                                                 |
| \\      /  F ield         | OpenFOAM: The Open Source CFD Toolbox           |
|  \\    /   O peration     | Version:  v2412                                 |
|   \\  /    A nd           | Website:  www.openfoam.com                      |
|    \\/     M anipulation  |                                                 |
\*---------------------------------------------------------------------------*/
FoamFile
{
    version     2.0;
    format      ascii;
    class       dictionary;
    object      fvSolution;
}
// * * * * * * * * * * * * * * * * * * * * * * * * * * * * * * * * * * * * * //

solvers
{
  p
  {
      solver           GAMG;
      tolerance        1e-7;
      relTol           0.01;

      smoother         DICGaussSeidel;
  }

  pFinal
  {
      $p;
      relTol          0;
  }

  pcorr
  {
      $p;
      relTol          0;
  }

  pcorrFinal
  {
      $p;
      relTol          0;
  }

  "(U|k|epsilon)"
  {
      solver          smoothSolver;
      smoother        symGaussSeidel;
      tolerance       1e-05;
      relTol          0.1;
  }

  "(U|k|epsilon)Final"
  {
      $U;
      relTol          0;
  }

  IBVolFraction
  {
      solver          GAMG;
      smoother        GaussSeidel;
      tolerance       1e-06;
      relTol          0;
  }

  IBVolFractionFinal
  {
      solver          GAMG;
      smoother        GaussSeidel;
      tolerance       1e-06;
      relTol          0;
  }
}


PIMPLE
{
    nOuterCorrectors 1;
    nCorrectors     2;
    nNonOrthogonalCorrectors 0;

    pRefPoint (0.01 0.01 0.01);
    pRefValue 0;

    IBVolFractionRefPoint (0.01 0.01 0.01);
    IBVolFractionRefValue 0;
    checkMeshCourantNo no;
    correctPhi yes;
}

// ************************************************************************* //
