/*--------------------------------*- C++ -*----------------------------------*\
  =========                 |
  \\      /  F ield         | OpenFOAM: The Open Source CFD Toolbox
   \\    /   O peration     | Website:  https://openfoam.org
    \\  /    A nd           | Version:  9
     \\/     M anipulation  |
\*---------------------------------------------------------------------------*/
FoamFile
{
    format      binary;
    class       polyBoundaryMesh;
    location    "constant/polyMesh";
    object      boundary;
}
// * * * * * * * * * * * * * * * * * * * * * * * * * * * * * * * * * * * * * //

5
(
    walls
    {
        type            wall;
        inGroups        List<word> 1(wall);
        nFaces          2008;
        startFace       506348;
    }
    rotor
    {
        type            wall;
        inGroups        List<word> 1(wall);
        nFaces          3266;
        startFace       508356;
    }
    AMIFace.inner
    {
        type            cyclicAMI;
        inGroups        1(cyclicAMI);
        nFaces          21076;
        startFace       511622;
        transform       noOrdering;
        neighbourPatch  AMIFace.outer;
    }
    body
    {
        type            wall;
        inGroups        List<word> 1(wall);
        nFaces          26788;
        startFace       532698;
    }
    AMIFace.outer
    {
        type            cyclicAMI;
        inGroups        1(cyclicAMI);
        nFaces          21408;
        startFace       559486;
        transform       noOrdering;
        neighbourPatch  AMIFace.inner;
    }
)

// ************************************************************************* //
