/*--------------------------------*- C++ -*----------------------------------*\
  =========                 |
  \\      /  F ield         | OpenFOAM: The Open Source CFD Toolbox
   \\    /   O peration     | Website:  https://openfoam.org
    \\  /    A nd           | Version:  9
     \\/     M anipulation  |
\*---------------------------------------------------------------------------*/
FoamFile
{
    format      ascii;
    class       dictionary;
    location    "constant";
    object      couplingProperties;
}
// * * * * * * * * * * * * * * * * * * * * * * * * * * * * * * * * * * * * * //

unresolved
{

    cellDistribution
    {
        // type of cell distribution method (if required) 
        type      diffusion;

        standardDeviation   0.0075; 
        
        nSteps      10;
    }

    porosity
    {
        // Options are PIC, subDivision29, subDivision9, diffusion, cellDistribution
        method cellDistribution;
        // minimum alpha allowed 
        alphaMin    0.2;
    }

    drag
    {
        // Drag force closure, other options are ErgunWenYu, Rong
        type                DiFelice; 

        // type of fluid velocity used in the drag force calculations
        //   cell: uses fluid velocity of the cell that contains the particle center 
        //   interpolation: uses averaged fluid velocity based on cell velocities around particle
        fluidVelocity       cell;  
        solidVelocity       particle;

        // weather to distribute calculated drag force on cells
        //   off: set the calculated drag force on cell itself
        //   on: distributed the calculated drag force on cells (using cellDistribution method)
        cellDistribution   on; 
        
        residualRe          10e-6;
    }

}

particleMapping
{
    // based on the maximum particle diameter in the simulation.
    domainExpansionRatio    1;

    domainUpdateInterval    0.0001;

    decompositionMode       facePlanes;
}

// ************************************************************************* //
