/*--------------------------------*- C++ -*----------------------------------*\
  =========                 |
  \\      /  F ield         | OpenFOAM: The Open Source CFD Toolbox
   \\    /   O peration     | Website:  https://openfoam.org
    \\  /    A nd           | Version:  9
     \\/     M anipulation  |
\*---------------------------------------------------------------------------*/
FoamFile
{
    format      ascii;
    class       polyBoundaryMesh;
    location    "constant/polyMesh";
    object      boundary;
}
// * * * * * * * * * * * * * * * * * * * * * * * * * * * * * * * * * * * * * //

3
(
    body
    {
        type            wall;
        inGroups        List<word> 1(wall);
        nFaces          2700;
        startFace       12100;
    }
    inlet
    {
        type            patch;
        nFaces          50;
        startFace       14800;
    }
    outlet
    {
        type            patch;
        nFaces          50;
        startFace       14850;
    }
)

// ************************************************************************* //
