/*--------------------------------*- C++ -*----------------------------------*\
| =========                 |                                                 |
| \\      /  F ield         | OpenFOAM: The Open Source CFD Toolbox           |
|  \\    /   O peration     | Version:  v2412                                 |
|   \\  /    A nd           | Website:  www.openfoam.com                      |
|    \\/     M anipulation  |                                                 |
\*---------------------------------------------------------------------------*/
FoamFile
{
    version     2.0;
    format      ascii;
    class       dictionary;
    object      couplingProperties;
}
// * * * * * * * * * * * * * * * * * * * * * * * * * * * * * * * * * * * * * //

resolved
{
    sphereSTLResolution 20;
    writeParticleID     no;
    writeSTL            no;
}

particleMapping
{
    // based on the maximum particle diameter in the simulation.
    domainExpansionRatio    1;

    domainUpdateInterval    0.01;

    decompositionMode       facePlanes;
}

// ************************************************************************* //
