/*--------------------------------*- C++ -*----------------------------------*\
  =========                 |
  \\      /  F ield         | OpenFOAM: The Open Source CFD Toolbox
   \\    /   O peration     | Website:  https://openfoam.org
    \\  /    A nd           | Version:  9
     \\/     M anipulation  |
\*---------------------------------------------------------------------------*/
FoamFile
{
    format      ascii;
    class       dictionary;
    location    "constant";
    object      couplingProperties;
}
// * * * * * * * * * * * * * * * * * * * * * * * * * * * * * * * * * * * * * //

subDomainExpansionFraction 1.0;

subDomainUpdateInterval    1;

porosity
{
    method  PIC;
    alphaMin    0.3;
}

drag
{
    type    Ergun;
    residualRe      10e-3;
}

// ************************************************************************* //
