/*--------------------------------*- C++ -*----------------------------------*\
  =========                 |
  \\      /  F ield         | OpenFOAM: The Open Source CFD Toolbox
   \\    /   O peration     | Website:  https://openfoam.org
    \\  /    A nd           | Version:  9
     \\/     M anipulation  |
\*---------------------------------------------------------------------------*/
FoamFile
{
    format      ascii;
    class       polyBoundaryMesh;
    location    "constant/polyMesh";
    object      boundary;
}
// * * * * * * * * * * * * * * * * * * * * * * * * * * * * * * * * * * * * * //

3
(
    outlet
    {
        type            patch;
        nFaces          240;
        startFace       95240;
    }
    fixedWalls
    {
        type            wall;
        inGroups        List<word> 1(wall);
        nFaces          10640;
        startFace       95480;
    }
    inlet
    {
        type            patch;
        nFaces          240;
        startFace       106120;
    }
)

// ************************************************************************* //
