/*--------------------------------*- C++ -*----------------------------------*\
| =========                 |                                                 |
| \\      /  F ield         | OpenFOAM: The Open Source CFD Toolbox           |
|  \\    /   O peration     | Version:  v2412                                 |
|   \\  /    A nd           | Website:  www.openfoam.com                      |
|    \\/     M anipulation  |                                                 |
\*---------------------------------------------------------------------------*/
FoamFile
{
    version     2.0;
    format      ascii;
    class       dictionary;
    object      blockMeshDict;
}
// * * * * * * * * * * * * * * * * * * * * * * * * * * * * * * * * * * * * * //

scale   1;

vertices
(
    (0  0 0)
    (1  0 0)
    (1  0.1 0)
    (0  0.1 0)
    (0  0 0.1)
    (1  0 0.1)
    (1  0.1 0.1)
    (0  0.1 0.1)
);

blocks
(
    hex (0 1 2 3 4 5 6 7) (100 15 10) simpleGrading (1 1 1)
);

edges
(
);

boundary
(
    top
    {
        type wall;
        faces
        (
            (3 7 6 2)
        );
    }

    bottom 
    {
        type wall;
        faces
        (
            (1 5 4 0)
        );
    }

    outlet
    {
        type cyclic;
        neighbourPatch inlet;
        faces
        (
            (2 6 5 1)
            
        );
    }

    inlet
    {
        type cyclic;
        neighbourPatch outlet;
        faces
        (
            (0 4 7 3)
        );
    }

    front
    {
        type wall;
        faces
        (
            (4 5 6 7)
        );
    }

    rear
    {
        type wall;
        faces
        (
            (0 3 2 1)
        );
    }
);


// ************************************************************************* //
