/*--------------------------------*- C++ -*----------------------------------*\
| =========                 |                                                 |
| \\      /  F ield         | OpenFOAM: The Open Source CFD Toolbox           |
|  \\    /   O peration     | Version:  v2412                                 |
|   \\  /    A nd           | Website:  www.openfoam.com                      |
|    \\/     M anipulation  |                                                 |
\*---------------------------------------------------------------------------*/
FoamFile
{
    version     2.0;
    format      ascii;
    class       dictionary;
    object      controlDict;
}
// * * * * * * * * * * * * * * * * * * * * * * * * * * * * * * * * * * * * * //

application     unresolvedSpherePFPlus;

startFrom       startTime;

startTime       0;

stopAt          endTime;

endTime         2;

deltaT          0.0001;

writeControl    adjustableRunTime;

writeInterval   0.02;

purgeWrite      0;

writeFormat     ascii;

writePrecision  6;

writeCompression off;

timeFormat      general;

timePrecision   6;

runTimeModifiable true;

adjustTimeStep  yes;

maxCo           0.7;

maxDeltaT       0.0005;

functions
{
    yPlus
    {
        type            yPlus;
        libs            (fieldFunctionObjects);
        writeControl    writeTime; // Calculates/writes whenever data is saved
    }

    averageVelocity
    {
        type            surfaceFieldValue;
        libs            (fieldFunctionObjects);

        fields          (U);
        operation       weightedAreaIntegrate;
        regionType      patch;
        name            outlet;

        weightField     alpha;
        writeArea       true;

        executeControl  runTime;
        executeInterval 0.001;
        writeControl    $executeControl;
        writeInterval   $executeInterval;

        writeFields     false;
    }

    pressureProbes
    {
        type                probes;
        libs                (sampling);
        probeLocations      
        (
            (0.003 0.003 0.003)
            (0.337 0.003 0.003)
            (0.667 0.003 0.003)
            (0.997 0.003 0.003)
        );
        fields              (p);

        executeControl  runTime;
        executeInterval 0.001;
        writeControl    $executeControl;
        writeInterval   $executeInterval;
    }
}


// ************************************************************************* //
