/*--------------------------------*- C++ -*----------------------------------*\
| =========                 |                                                 |
| \\      /  F ield         | OpenFOAM: The Open Source CFD Toolbox           |
|  \\    /   O peration     | Version:  v2412                                 |
|   \\  /    A nd           | Website:  www.openfoam.com                      |
|    \\/     M anipulation  |                                                 |
\*---------------------------------------------------------------------------*/
FoamFile
{
    version     2.0;
    format      ascii;
    class       dictionary;
    object      blockMeshDict;
}
// * * * * * * * * * * * * * * * * * * * * * * * * * * * * * * * * * * * * * //

convertToMeters 1;

vertices
(
    (-1.5 -1.5  -0.1)
    ( 1.5 -1.5  -0.1)
    ( 1.5  1.5  -0.1)
    (-1.5  1.5  -0.1)
    (-1.5 -1.5   2.3)
    ( 1.5 -1.5   2.3)
    ( 1.5  1.5   2.3)
    (-1.5  1.5   2.3)
);

blocks
(
    hex (0 1 2 3 4 5 6 7) (30 30 24) simpleGrading (1 1 1)
);

edges
(
);

boundary
(
    walls
    {
        type patch;
        faces
        (
            (3 7 6 2)
            (1 5 4 0)
            (0 4 7 3)
            (2 6 5 1)
            (0 3 2 1)
            (4 5 6 7)
        );
    }
);

// ************************************************************************* //
