/*--------------------------------*- C++ -*----------------------------------*\
  =========                 |
  \\      /  F ield         | OpenFOAM: The Open Source CFD Toolbox
   \\    /   O peration     | Website:  https://openfoam.org
    \\  /    A nd           | Version:  9
     \\/     M anipulation  |
\*---------------------------------------------------------------------------*/
FoamFile
{
    format      ascii;
    class       extendedFeatureEdgeMesh;
    location    "constant/extendedFeatureEdgeMesh";
    object      body.extendedFeatureEdgeMesh;
}
// * * * * * * * * * * * * * * * * * * * * * * * * * * * * * * * * * * * * * //

// points

854
(
(0.25 0 0)
(0.25 0 0.025)
(0.25 0.25 0)
(0.25 0.25 0.025)
(0 0.05 0)
(0 0 0)
(0.2 0.25 0)
(0.2 0.05 0)
(0 0 0.025)
(0.2 0.05 0.025)
(0 0.05 0.025)
(0.2 0.25 0.025)
(0.25 0.25 0.0025)
(0.25 0.25 0.005)
(0.25 0.25 0.0075)
(0.25 0.25 0.01)
(0.25 0.25 0.0125)
(0.25 0.25 0.015)
(0.25 0.25 0.0175)
(0.25 0.25 0.02)
(0.25 0.25 0.0225)
(0 0.0475 0)
(0 0.045 0)
(0 0.0425 0)
(0 0.04 0)
(0 0.0375 0)
(0 0.035 0)
(0 0.0325 0)
(0 0.03 0)
(0 0.0275 0)
(0 0.025 0)
(0 0.0225 0)
(0 0.02 0)
(0 0.0175 0)
(0 0.015 0)
(0 0.0125 0)
(0 0.01 0)
(0 0.0075 0)
(0 0.005 0)
(0 0.0025 0)
(0.2475 0.25 0)
(0.245 0.25 0)
(0.2425 0.25 0)
(0.24 0.25 0)
(0.2375 0.25 0)
(0.235 0.25 0)
(0.2325 0.25 0)
(0.23 0.25 0)
(0.2275 0.25 0)
(0.225 0.25 0)
(0.2225 0.25 0)
(0.22 0.25 0)
(0.2175 0.25 0)
(0.215 0.25 0)
(0.2125 0.25 0)
(0.21 0.25 0)
(0.2075 0.25 0)
(0.205 0.25 0)
(0.2025 0.25 0)
(0 0 0.0025)
(0 0 0.005)
(0 0 0.0075)
(0 0 0.01)
(0 0 0.0125)
(0 0 0.015)
(0 0 0.0175)
(0 0 0.02)
(0 0 0.0225)
(0 0.05 0.0025)
(0 0.05 0.005)
(0 0.05 0.0075)
(0 0.05 0.01)
(0 0.05 0.0125)
(0 0.05 0.015)
(0 0.05 0.0175)
(0 0.05 0.02)
(0 0.05 0.0225)
(0 0.0475 0.025)
(0 0.045 0.025)
(0 0.0425 0.025)
(0 0.04 0.025)
(0 0.0375 0.025)
(0 0.035 0.025)
(0 0.0325 0.025)
(0 0.03 0.025)
(0 0.0275 0.025)
(0 0.025 0.025)
(0 0.0225 0.025)
(0 0.02 0.025)
(0 0.0175 0.025)
(0 0.015 0.025)
(0 0.0125 0.025)
(0 0.01 0.025)
(0 0.0075 0.025)
(0 0.005 0.025)
(0 0.0025 0.025)
(0.2475 0.25 0.025)
(0.245 0.25 0.025)
(0.2425 0.25 0.025)
(0.24 0.25 0.025)
(0.2375 0.25 0.025)
(0.235 0.25 0.025)
(0.2325 0.25 0.025)
(0.23 0.25 0.025)
(0.2275 0.25 0.025)
(0.225 0.25 0.025)
(0.2225 0.25 0.025)
(0.22 0.25 0.025)
(0.2175 0.25 0.025)
(0.215 0.25 0.025)
(0.2125 0.25 0.025)
(0.21 0.25 0.025)
(0.2075 0.25 0.025)
(0.205 0.25 0.025)
(0.2025 0.25 0.025)
(0.2 0.25 0.0025)
(0.2 0.25 0.005)
(0.2 0.25 0.0075)
(0.2 0.25 0.01)
(0.2 0.25 0.0125)
(0.2 0.25 0.015)
(0.2 0.25 0.0175)
(0.2 0.25 0.02)
(0.2 0.25 0.0225)
(0.2 0.05 0.0025)
(0.2 0.05 0.005)
(0.2 0.05 0.0075)
(0.2 0.05 0.01)
(0.2 0.05 0.0125)
(0.2 0.05 0.015)
(0.2 0.05 0.0175)
(0.2 0.05 0.02)
(0.2 0.05 0.0225)
(0.25 0.0025 0)
(0.25 0 0.0025)
(0.25 0 0.005)
(0.25 0 0.0075)
(0.25 0 0.01)
(0.25 0 0.0125)
(0.25 0 0.015)
(0.25 0 0.0175)
(0.25 0 0.02)
(0.25 0 0.0225)
(0.25 0.0025 0.025)
(0.25 0.2475 0)
(0.25 0.2475 0.025)
(0.25 0.245 0)
(0.25 0.245 0.025)
(0.25 0.2425 0)
(0.25 0.2425 0.025)
(0.25 0.24 0)
(0.25 0.24 0.025)
(0.25 0.2375 0)
(0.25 0.2375 0.025)
(0.25 0.235 0)
(0.25 0.235 0.025)
(0.25 0.2325 0)
(0.25 0.2325 0.025)
(0.25 0.23 0)
(0.25 0.23 0.025)
(0.25 0.2275 0)
(0.25 0.2275 0.025)
(0.25 0.225 0)
(0.25 0.225 0.025)
(0.25 0.2225 0)
(0.25 0.2225 0.025)
(0.25 0.22 0)
(0.25 0.22 0.025)
(0.25 0.2175 0)
(0.25 0.2175 0.025)
(0.25 0.215 0)
(0.25 0.215 0.025)
(0.25 0.2125 0)
(0.25 0.2125 0.025)
(0.25 0.21 0)
(0.25 0.21 0.025)
(0.25 0.2075 0)
(0.25 0.2075 0.025)
(0.25 0.205 0)
(0.25 0.205 0.025)
(0.25 0.2025 0)
(0.25 0.2025 0.025)
(0.25 0.2 0)
(0.25 0.2 0.025)
(0.25 0.1975 0)
(0.25 0.1975 0.025)
(0.25 0.195 0)
(0.25 0.195 0.025)
(0.25 0.1925 0)
(0.25 0.1925 0.025)
(0.25 0.19 0)
(0.25 0.19 0.025)
(0.25 0.1875 0)
(0.25 0.1875 0.025)
(0.25 0.185 0)
(0.25 0.185 0.025)
(0.25 0.1825 0)
(0.25 0.1825 0.025)
(0.25 0.18 0)
(0.25 0.18 0.025)
(0.25 0.1775 0)
(0.25 0.1775 0.025)
(0.25 0.175 0)
(0.25 0.175 0.025)
(0.25 0.1725 0)
(0.25 0.1725 0.025)
(0.25 0.17 0)
(0.25 0.17 0.025)
(0.25 0.1675 0)
(0.25 0.1675 0.025)
(0.25 0.165 0)
(0.25 0.165 0.025)
(0.25 0.1625 0)
(0.25 0.1625 0.025)
(0.25 0.16 0)
(0.25 0.16 0.025)
(0.25 0.1575 0)
(0.25 0.1575 0.025)
(0.25 0.155 0)
(0.25 0.155 0.025)
(0.25 0.1525 0)
(0.25 0.1525 0.025)
(0.25 0.15 0)
(0.25 0.15 0.025)
(0.25 0.1475 0)
(0.25 0.1475 0.025)
(0.25 0.145 0)
(0.25 0.145 0.025)
(0.25 0.1425 0)
(0.25 0.1425 0.025)
(0.25 0.14 0)
(0.25 0.14 0.025)
(0.25 0.1375 0)
(0.25 0.1375 0.025)
(0.25 0.135 0)
(0.25 0.135 0.025)
(0.25 0.1325 0)
(0.25 0.1325 0.025)
(0.25 0.13 0)
(0.25 0.13 0.025)
(0.25 0.1275 0)
(0.25 0.1275 0.025)
(0.25 0.125 0)
(0.25 0.125 0.025)
(0.25 0.1225 0)
(0.25 0.1225 0.025)
(0.25 0.12 0)
(0.25 0.12 0.025)
(0.25 0.1175 0)
(0.25 0.1175 0.025)
(0.25 0.115 0)
(0.25 0.115 0.025)
(0.25 0.1125 0)
(0.25 0.1125 0.025)
(0.25 0.11 0)
(0.25 0.11 0.025)
(0.25 0.1075 0)
(0.25 0.1075 0.025)
(0.25 0.105 0)
(0.25 0.105 0.025)
(0.25 0.1025 0)
(0.25 0.1025 0.025)
(0.25 0.1 0)
(0.25 0.1 0.025)
(0.25 0.0975 0)
(0.25 0.0975 0.025)
(0.25 0.095 0)
(0.25 0.095 0.025)
(0.25 0.0925 0)
(0.25 0.0925 0.025)
(0.25 0.09 0)
(0.25 0.09 0.025)
(0.25 0.0875 0)
(0.25 0.0875 0.025)
(0.25 0.085 0)
(0.25 0.085 0.025)
(0.25 0.0825 0)
(0.25 0.0825 0.025)
(0.25 0.08 0)
(0.25 0.08 0.025)
(0.25 0.0775 0)
(0.25 0.0775 0.025)
(0.25 0.075 0)
(0.25 0.075 0.025)
(0.25 0.0725 0)
(0.25 0.0725 0.025)
(0.25 0.07 0)
(0.25 0.07 0.025)
(0.25 0.0675 0)
(0.25 0.0675 0.025)
(0.25 0.065 0)
(0.25 0.065 0.025)
(0.25 0.0625 0)
(0.25 0.0625 0.025)
(0.25 0.06 0)
(0.25 0.06 0.025)
(0.25 0.0575 0)
(0.25 0.0575 0.025)
(0.25 0.055 0)
(0.25 0.055 0.025)
(0.25 0.0525 0)
(0.25 0.0525 0.025)
(0.25 0.05 0)
(0.25 0.05 0.025)
(0.25 0.0475 0)
(0.25 0.0475 0.025)
(0.25 0.045 0)
(0.25 0.045 0.025)
(0.25 0.0425 0)
(0.25 0.0425 0.025)
(0.25 0.04 0)
(0.25 0.04 0.025)
(0.25 0.0375 0)
(0.25 0.0375 0.025)
(0.25 0.035 0)
(0.25 0.035 0.025)
(0.25 0.0325 0)
(0.25 0.0325 0.025)
(0.25 0.03 0)
(0.25 0.03 0.025)
(0.25 0.0275 0)
(0.25 0.0275 0.025)
(0.25 0.025 0)
(0.25 0.025 0.025)
(0.25 0.0225 0)
(0.25 0.0225 0.025)
(0.25 0.02 0)
(0.25 0.02 0.025)
(0.25 0.0175 0)
(0.25 0.0175 0.025)
(0.25 0.015 0)
(0.25 0.015 0.025)
(0.25 0.0125 0)
(0.25 0.0125 0.025)
(0.25 0.01 0)
(0.25 0.01 0.025)
(0.25 0.0075 0)
(0.25 0.0075 0.025)
(0.25 0.005 0)
(0.25 0.005 0.025)
(0.0025 0.05 0)
(0.0025 0 0)
(0.2475 0 0)
(0.245 0 0)
(0.2425 0 0)
(0.24 0 0)
(0.2375 0 0)
(0.235 0 0)
(0.2325 0 0)
(0.23 0 0)
(0.2275 0 0)
(0.225 0 0)
(0.2225 0 0)
(0.22 0 0)
(0.2175 0 0)
(0.215 0 0)
(0.2125 0 0)
(0.21 0 0)
(0.2075 0 0)
(0.205 0 0)
(0.2025 0 0)
(0.2 0.2475 0)
(0.2 0.245 0)
(0.2 0.2425 0)
(0.2 0.24 0)
(0.2 0.2375 0)
(0.2 0.235 0)
(0.2 0.2325 0)
(0.2 0.23 0)
(0.2 0.2275 0)
(0.2 0.225 0)
(0.2 0.2225 0)
(0.2 0.22 0)
(0.2 0.2175 0)
(0.2 0.215 0)
(0.2 0.2125 0)
(0.2 0.21 0)
(0.2 0.2075 0)
(0.2 0.205 0)
(0.2 0.2025 0)
(0.2 0.2 0)
(0.2 0.1975 0)
(0.2 0.195 0)
(0.2 0.1925 0)
(0.2 0.19 0)
(0.2 0.1875 0)
(0.2 0.185 0)
(0.2 0.1825 0)
(0.2 0.18 0)
(0.2 0.1775 0)
(0.2 0.175 0)
(0.2 0.1725 0)
(0.2 0.17 0)
(0.2 0.1675 0)
(0.2 0.165 0)
(0.2 0.1625 0)
(0.2 0.16 0)
(0.2 0.1575 0)
(0.2 0.155 0)
(0.2 0.1525 0)
(0.2 0.15 0)
(0.2 0.1475 0)
(0.2 0.145 0)
(0.2 0.1425 0)
(0.2 0.14 0)
(0.2 0.1375 0)
(0.2 0.135 0)
(0.2 0.1325 0)
(0.2 0.13 0)
(0.2 0.1275 0)
(0.2 0.125 0)
(0.2 0.1225 0)
(0.2 0.12 0)
(0.2 0.1175 0)
(0.2 0.115 0)
(0.2 0.1125 0)
(0.2 0.11 0)
(0.2 0.1075 0)
(0.2 0.105 0)
(0.2 0.1025 0)
(0.2 0.1 0)
(0.2 0.0975 0)
(0.2 0.095 0)
(0.2 0.0925 0)
(0.2 0.09 0)
(0.2 0.0875 0)
(0.2 0.085 0)
(0.2 0.0825 0)
(0.2 0.08 0)
(0.2 0.0775 0)
(0.2 0.075 0)
(0.2 0.0725 0)
(0.2 0.07 0)
(0.2 0.0675 0)
(0.2 0.065 0)
(0.2 0.0625 0)
(0.2 0.06 0)
(0.2 0.0575 0)
(0.2 0.055 0)
(0.2 0.0525 0)
(0.2 0 0)
(0.1975 0.05 0)
(0.1975 0 0)
(0.195 0.05 0)
(0.195 0 0)
(0.1925 0.05 0)
(0.1925 0 0)
(0.19 0.05 0)
(0.19 0 0)
(0.1875 0.05 0)
(0.1875 0 0)
(0.185 0.05 0)
(0.185 0 0)
(0.1825 0.05 0)
(0.1825 0 0)
(0.18 0.05 0)
(0.18 0 0)
(0.1775 0.05 0)
(0.1775 0 0)
(0.175 0.05 0)
(0.175 0 0)
(0.1725 0.05 0)
(0.1725 0 0)
(0.17 0.05 0)
(0.17 0 0)
(0.1675 0.05 0)
(0.1675 0 0)
(0.165 0.05 0)
(0.165 0 0)
(0.1625 0.05 0)
(0.1625 0 0)
(0.16 0.05 0)
(0.16 0 0)
(0.1575 0.05 0)
(0.1575 0 0)
(0.155 0.05 0)
(0.155 0 0)
(0.1525 0.05 0)
(0.1525 0 0)
(0.15 0.05 0)
(0.15 0 0)
(0.1475 0.05 0)
(0.1475 0 0)
(0.145 0.05 0)
(0.145 0 0)
(0.1425 0.05 0)
(0.1425 0 0)
(0.14 0.05 0)
(0.14 0 0)
(0.1375 0.05 0)
(0.1375 0 0)
(0.135 0.05 0)
(0.135 0 0)
(0.1325 0.05 0)
(0.1325 0 0)
(0.13 0.05 0)
(0.13 0 0)
(0.1275 0.05 0)
(0.1275 0 0)
(0.125 0.05 0)
(0.125 0 0)
(0.1225 0.05 0)
(0.1225 0 0)
(0.12 0.05 0)
(0.12 0 0)
(0.1175 0.05 0)
(0.1175 0 0)
(0.115 0.05 0)
(0.115 0 0)
(0.1125 0.05 0)
(0.1125 0 0)
(0.11 0.05 0)
(0.11 0 0)
(0.1075 0.05 0)
(0.1075 0 0)
(0.105 0.05 0)
(0.105 0 0)
(0.1025 0.05 0)
(0.1025 0 0)
(0.1 0.05 0)
(0.1 0 0)
(0.0975 0.05 0)
(0.0975 0 0)
(0.095 0.05 0)
(0.095 0 0)
(0.0925 0.05 0)
(0.0925 0 0)
(0.09 0.05 0)
(0.09 0 0)
(0.0875 0.05 0)
(0.0875 0 0)
(0.085 0.05 0)
(0.085 0 0)
(0.0825 0.05 0)
(0.0825 0 0)
(0.08 0.05 0)
(0.08 0 0)
(0.0775 0.05 0)
(0.0775 0 0)
(0.075 0.05 0)
(0.075 0 0)
(0.0725 0.05 0)
(0.0725 0 0)
(0.07 0.05 0)
(0.07 0 0)
(0.0675 0.05 0)
(0.0675 0 0)
(0.065 0.05 0)
(0.065 0 0)
(0.0625 0.05 0)
(0.0625 0 0)
(0.06 0.05 0)
(0.06 0 0)
(0.0575 0.05 0)
(0.0575 0 0)
(0.055 0.05 0)
(0.055 0 0)
(0.0525 0.05 0)
(0.0525 0 0)
(0.05 0.05 0)
(0.05 0 0)
(0.0475 0.05 0)
(0.0475 0 0)
(0.045 0.05 0)
(0.045 0 0)
(0.0425 0.05 0)
(0.0425 0 0)
(0.04 0.05 0)
(0.04 0 0)
(0.0375 0.05 0)
(0.0375 0 0)
(0.035 0.05 0)
(0.035 0 0)
(0.0325 0.05 0)
(0.0325 0 0)
(0.03 0.05 0)
(0.03 0 0)
(0.0275 0.05 0)
(0.0275 0 0)
(0.025 0.05 0)
(0.025 0 0)
(0.0225 0.05 0)
(0.0225 0 0)
(0.02 0.05 0)
(0.02 0 0)
(0.0175 0.05 0)
(0.0175 0 0)
(0.015 0.05 0)
(0.015 0 0)
(0.0125 0.05 0)
(0.0125 0 0)
(0.01 0.05 0)
(0.01 0 0)
(0.0075 0.05 0)
(0.0075 0 0)
(0.005 0.05 0)
(0.005 0 0)
(0.0025 0 0.025)
(0.2475 0 0.025)
(0.245 0 0.025)
(0.2425 0 0.025)
(0.24 0 0.025)
(0.2375 0 0.025)
(0.235 0 0.025)
(0.2325 0 0.025)
(0.23 0 0.025)
(0.2275 0 0.025)
(0.225 0 0.025)
(0.2225 0 0.025)
(0.22 0 0.025)
(0.2175 0 0.025)
(0.215 0 0.025)
(0.2125 0 0.025)
(0.21 0 0.025)
(0.2075 0 0.025)
(0.205 0 0.025)
(0.2025 0 0.025)
(0.2 0 0.025)
(0.1975 0 0.025)
(0.195 0 0.025)
(0.1925 0 0.025)
(0.19 0 0.025)
(0.1875 0 0.025)
(0.185 0 0.025)
(0.1825 0 0.025)
(0.18 0 0.025)
(0.1775 0 0.025)
(0.175 0 0.025)
(0.1725 0 0.025)
(0.17 0 0.025)
(0.1675 0 0.025)
(0.165 0 0.025)
(0.1625 0 0.025)
(0.16 0 0.025)
(0.1575 0 0.025)
(0.155 0 0.025)
(0.1525 0 0.025)
(0.15 0 0.025)
(0.1475 0 0.025)
(0.145 0 0.025)
(0.1425 0 0.025)
(0.14 0 0.025)
(0.1375 0 0.025)
(0.135 0 0.025)
(0.1325 0 0.025)
(0.13 0 0.025)
(0.1275 0 0.025)
(0.125 0 0.025)
(0.1225 0 0.025)
(0.12 0 0.025)
(0.1175 0 0.025)
(0.115 0 0.025)
(0.1125 0 0.025)
(0.11 0 0.025)
(0.1075 0 0.025)
(0.105 0 0.025)
(0.1025 0 0.025)
(0.1 0 0.025)
(0.0975 0 0.025)
(0.095 0 0.025)
(0.0925 0 0.025)
(0.09 0 0.025)
(0.0875 0 0.025)
(0.085 0 0.025)
(0.0825 0 0.025)
(0.08 0 0.025)
(0.0775 0 0.025)
(0.075 0 0.025)
(0.0725 0 0.025)
(0.07 0 0.025)
(0.0675 0 0.025)
(0.065 0 0.025)
(0.0625 0 0.025)
(0.06 0 0.025)
(0.0575 0 0.025)
(0.055 0 0.025)
(0.0525 0 0.025)
(0.05 0 0.025)
(0.0475 0 0.025)
(0.045 0 0.025)
(0.0425 0 0.025)
(0.04 0 0.025)
(0.0375 0 0.025)
(0.035 0 0.025)
(0.0325 0 0.025)
(0.03 0 0.025)
(0.0275 0 0.025)
(0.025 0 0.025)
(0.0225 0 0.025)
(0.02 0 0.025)
(0.0175 0 0.025)
(0.015 0 0.025)
(0.0125 0 0.025)
(0.01 0 0.025)
(0.0075 0 0.025)
(0.005 0 0.025)
(0.1975 0.05 0.025)
(0.0025 0.05 0.025)
(0.005 0.05 0.025)
(0.0075 0.05 0.025)
(0.01 0.05 0.025)
(0.0125 0.05 0.025)
(0.015 0.05 0.025)
(0.0175 0.05 0.025)
(0.02 0.05 0.025)
(0.0225 0.05 0.025)
(0.025 0.05 0.025)
(0.0275 0.05 0.025)
(0.03 0.05 0.025)
(0.0325 0.05 0.025)
(0.035 0.05 0.025)
(0.0375 0.05 0.025)
(0.04 0.05 0.025)
(0.0425 0.05 0.025)
(0.045 0.05 0.025)
(0.0475 0.05 0.025)
(0.05 0.05 0.025)
(0.0525 0.05 0.025)
(0.055 0.05 0.025)
(0.0575 0.05 0.025)
(0.06 0.05 0.025)
(0.0625 0.05 0.025)
(0.065 0.05 0.025)
(0.0675 0.05 0.025)
(0.07 0.05 0.025)
(0.0725 0.05 0.025)
(0.075 0.05 0.025)
(0.0775 0.05 0.025)
(0.08 0.05 0.025)
(0.0825 0.05 0.025)
(0.085 0.05 0.025)
(0.0875 0.05 0.025)
(0.09 0.05 0.025)
(0.0925 0.05 0.025)
(0.095 0.05 0.025)
(0.0975 0.05 0.025)
(0.1 0.05 0.025)
(0.1025 0.05 0.025)
(0.105 0.05 0.025)
(0.1075 0.05 0.025)
(0.11 0.05 0.025)
(0.1125 0.05 0.025)
(0.115 0.05 0.025)
(0.1175 0.05 0.025)
(0.12 0.05 0.025)
(0.1225 0.05 0.025)
(0.125 0.05 0.025)
(0.1275 0.05 0.025)
(0.13 0.05 0.025)
(0.1325 0.05 0.025)
(0.135 0.05 0.025)
(0.1375 0.05 0.025)
(0.14 0.05 0.025)
(0.1425 0.05 0.025)
(0.145 0.05 0.025)
(0.1475 0.05 0.025)
(0.15 0.05 0.025)
(0.1525 0.05 0.025)
(0.155 0.05 0.025)
(0.1575 0.05 0.025)
(0.16 0.05 0.025)
(0.1625 0.05 0.025)
(0.165 0.05 0.025)
(0.1675 0.05 0.025)
(0.17 0.05 0.025)
(0.1725 0.05 0.025)
(0.175 0.05 0.025)
(0.1775 0.05 0.025)
(0.18 0.05 0.025)
(0.1825 0.05 0.025)
(0.185 0.05 0.025)
(0.1875 0.05 0.025)
(0.19 0.05 0.025)
(0.1925 0.05 0.025)
(0.195 0.05 0.025)
(0.2 0.2475 0.025)
(0.2 0.245 0.025)
(0.2 0.2425 0.025)
(0.2 0.24 0.025)
(0.2 0.2375 0.025)
(0.2 0.235 0.025)
(0.2 0.2325 0.025)
(0.2 0.23 0.025)
(0.2 0.2275 0.025)
(0.2 0.225 0.025)
(0.2 0.2225 0.025)
(0.2 0.22 0.025)
(0.2 0.2175 0.025)
(0.2 0.215 0.025)
(0.2 0.2125 0.025)
(0.2 0.21 0.025)
(0.2 0.2075 0.025)
(0.2 0.205 0.025)
(0.2 0.2025 0.025)
(0.2 0.2 0.025)
(0.2 0.1975 0.025)
(0.2 0.195 0.025)
(0.2 0.1925 0.025)
(0.2 0.19 0.025)
(0.2 0.1875 0.025)
(0.2 0.185 0.025)
(0.2 0.1825 0.025)
(0.2 0.18 0.025)
(0.2 0.1775 0.025)
(0.2 0.175 0.025)
(0.2 0.1725 0.025)
(0.2 0.17 0.025)
(0.2 0.1675 0.025)
(0.2 0.165 0.025)
(0.2 0.1625 0.025)
(0.2 0.16 0.025)
(0.2 0.1575 0.025)
(0.2 0.155 0.025)
(0.2 0.1525 0.025)
(0.2 0.15 0.025)
(0.2 0.1475 0.025)
(0.2 0.145 0.025)
(0.2 0.1425 0.025)
(0.2 0.14 0.025)
(0.2 0.1375 0.025)
(0.2 0.135 0.025)
(0.2 0.1325 0.025)
(0.2 0.13 0.025)
(0.2 0.1275 0.025)
(0.2 0.125 0.025)
(0.2 0.1225 0.025)
(0.2 0.12 0.025)
(0.2 0.1175 0.025)
(0.2 0.115 0.025)
(0.2 0.1125 0.025)
(0.2 0.11 0.025)
(0.2 0.1075 0.025)
(0.2 0.105 0.025)
(0.2 0.1025 0.025)
(0.2 0.1 0.025)
(0.2 0.0975 0.025)
(0.2 0.095 0.025)
(0.2 0.0925 0.025)
(0.2 0.09 0.025)
(0.2 0.0875 0.025)
(0.2 0.085 0.025)
(0.2 0.0825 0.025)
(0.2 0.08 0.025)
(0.2 0.0775 0.025)
(0.2 0.075 0.025)
(0.2 0.0725 0.025)
(0.2 0.07 0.025)
(0.2 0.0675 0.025)
(0.2 0.065 0.025)
(0.2 0.0625 0.025)
(0.2 0.06 0.025)
(0.2 0.0575 0.025)
(0.2 0.055 0.025)
(0.2 0.0525 0.025)
)

// edges

860
(
(7 124)
(124 125)
(125 126)
(126 127)
(127 128)
(128 129)
(129 130)
(130 131)
(131 132)
(132 9)
(133 0)
(0 134)
(134 135)
(135 136)
(136 137)
(137 138)
(138 139)
(139 140)
(140 141)
(141 142)
(142 1)
(1 143)
(2 144)
(145 3)
(144 146)
(147 145)
(146 148)
(149 147)
(148 150)
(151 149)
(150 152)
(153 151)
(152 154)
(155 153)
(154 156)
(157 155)
(156 158)
(159 157)
(158 160)
(161 159)
(160 162)
(163 161)
(162 164)
(165 163)
(164 166)
(167 165)
(166 168)
(169 167)
(168 170)
(171 169)
(170 172)
(173 171)
(172 174)
(175 173)
(174 176)
(177 175)
(176 178)
(179 177)
(178 180)
(181 179)
(180 182)
(183 181)
(182 184)
(185 183)
(184 186)
(187 185)
(186 188)
(189 187)
(188 190)
(191 189)
(190 192)
(193 191)
(192 194)
(195 193)
(194 196)
(197 195)
(196 198)
(199 197)
(198 200)
(201 199)
(200 202)
(203 201)
(202 204)
(205 203)
(204 206)
(207 205)
(206 208)
(209 207)
(208 210)
(211 209)
(210 212)
(213 211)
(212 214)
(215 213)
(214 216)
(217 215)
(216 218)
(219 217)
(218 220)
(221 219)
(220 222)
(223 221)
(222 224)
(225 223)
(224 226)
(227 225)
(226 228)
(229 227)
(228 230)
(231 229)
(230 232)
(233 231)
(232 234)
(235 233)
(234 236)
(237 235)
(236 238)
(239 237)
(238 240)
(241 239)
(240 242)
(243 241)
(242 244)
(245 243)
(244 246)
(247 245)
(246 248)
(249 247)
(248 250)
(251 249)
(250 252)
(253 251)
(252 254)
(255 253)
(254 256)
(257 255)
(256 258)
(259 257)
(258 260)
(261 259)
(260 262)
(263 261)
(262 264)
(265 263)
(264 266)
(267 265)
(266 268)
(269 267)
(268 270)
(271 269)
(270 272)
(273 271)
(272 274)
(275 273)
(274 276)
(277 275)
(276 278)
(279 277)
(278 280)
(281 279)
(280 282)
(283 281)
(282 284)
(285 283)
(284 286)
(287 285)
(286 288)
(289 287)
(288 290)
(291 289)
(290 292)
(293 291)
(292 294)
(295 293)
(294 296)
(297 295)
(296 298)
(299 297)
(298 300)
(301 299)
(300 302)
(303 301)
(302 304)
(305 303)
(304 306)
(307 305)
(306 308)
(309 307)
(308 310)
(311 309)
(310 312)
(313 311)
(312 314)
(315 313)
(314 316)
(317 315)
(316 318)
(319 317)
(318 320)
(321 319)
(320 322)
(323 321)
(322 324)
(325 323)
(324 326)
(327 325)
(326 328)
(329 327)
(328 330)
(331 329)
(330 332)
(333 331)
(332 334)
(335 333)
(334 336)
(337 335)
(336 338)
(339 337)
(338 133)
(143 339)
(340 4)
(5 341)
(342 0)
(343 342)
(344 343)
(345 344)
(346 345)
(347 346)
(348 347)
(349 348)
(350 349)
(351 350)
(352 351)
(353 352)
(354 353)
(355 354)
(356 355)
(357 356)
(358 357)
(359 358)
(360 359)
(6 361)
(361 362)
(362 363)
(363 364)
(364 365)
(365 366)
(366 367)
(367 368)
(368 369)
(369 370)
(370 371)
(371 372)
(372 373)
(373 374)
(374 375)
(375 376)
(376 377)
(377 378)
(378 379)
(379 380)
(380 381)
(381 382)
(382 383)
(383 384)
(384 385)
(385 386)
(386 387)
(387 388)
(388 389)
(389 390)
(390 391)
(391 392)
(392 393)
(393 394)
(394 395)
(395 396)
(396 397)
(397 398)
(398 399)
(399 400)
(400 401)
(401 402)
(402 403)
(403 404)
(404 405)
(405 406)
(406 407)
(407 408)
(408 409)
(409 410)
(410 411)
(411 412)
(412 413)
(413 414)
(414 415)
(415 416)
(416 417)
(417 418)
(418 419)
(419 420)
(420 421)
(421 422)
(422 423)
(423 424)
(424 425)
(425 426)
(426 427)
(427 428)
(428 429)
(429 430)
(430 431)
(431 432)
(432 433)
(433 434)
(434 435)
(435 436)
(436 437)
(437 438)
(438 439)
(439 7)
(440 360)
(7 441)
(442 440)
(441 443)
(444 442)
(443 445)
(446 444)
(445 447)
(448 446)
(447 449)
(450 448)
(449 451)
(452 450)
(451 453)
(454 452)
(453 455)
(456 454)
(455 457)
(458 456)
(457 459)
(460 458)
(459 461)
(462 460)
(461 463)
(464 462)
(463 465)
(466 464)
(465 467)
(468 466)
(467 469)
(470 468)
(469 471)
(472 470)
(471 473)
(474 472)
(473 475)
(476 474)
(475 477)
(478 476)
(477 479)
(480 478)
(479 481)
(482 480)
(481 483)
(484 482)
(483 485)
(486 484)
(485 487)
(488 486)
(487 489)
(490 488)
(489 491)
(492 490)
(491 493)
(494 492)
(493 495)
(496 494)
(495 497)
(498 496)
(497 499)
(500 498)
(499 501)
(502 500)
(501 503)
(504 502)
(503 505)
(506 504)
(505 507)
(508 506)
(507 509)
(510 508)
(509 511)
(512 510)
(511 513)
(514 512)
(513 515)
(516 514)
(515 517)
(518 516)
(517 519)
(520 518)
(519 521)
(522 520)
(521 523)
(524 522)
(523 525)
(526 524)
(525 527)
(528 526)
(527 529)
(530 528)
(529 531)
(532 530)
(531 533)
(534 532)
(533 535)
(536 534)
(535 537)
(538 536)
(537 539)
(540 538)
(539 541)
(542 540)
(541 543)
(544 542)
(543 545)
(546 544)
(545 547)
(548 546)
(547 549)
(550 548)
(549 551)
(552 550)
(551 553)
(554 552)
(553 555)
(556 554)
(555 557)
(558 556)
(557 559)
(560 558)
(559 561)
(562 560)
(561 563)
(564 562)
(563 565)
(566 564)
(565 567)
(568 566)
(567 569)
(570 568)
(569 571)
(572 570)
(571 573)
(574 572)
(573 575)
(576 574)
(575 577)
(578 576)
(577 579)
(580 578)
(579 581)
(582 580)
(581 583)
(584 582)
(583 585)
(586 584)
(585 587)
(588 586)
(587 589)
(590 588)
(589 591)
(592 590)
(591 593)
(594 592)
(593 595)
(596 594)
(595 340)
(341 596)
(8 597)
(598 1)
(599 598)
(600 599)
(601 600)
(602 601)
(603 602)
(604 603)
(605 604)
(606 605)
(607 606)
(608 607)
(609 608)
(610 609)
(611 610)
(612 611)
(613 612)
(614 613)
(615 614)
(616 615)
(617 616)
(618 617)
(619 618)
(620 619)
(621 620)
(622 621)
(623 622)
(624 623)
(625 624)
(626 625)
(627 626)
(628 627)
(629 628)
(630 629)
(631 630)
(632 631)
(633 632)
(634 633)
(635 634)
(636 635)
(637 636)
(638 637)
(639 638)
(640 639)
(641 640)
(642 641)
(643 642)
(644 643)
(645 644)
(646 645)
(647 646)
(648 647)
(649 648)
(650 649)
(651 650)
(652 651)
(653 652)
(654 653)
(655 654)
(656 655)
(657 656)
(658 657)
(659 658)
(660 659)
(661 660)
(662 661)
(663 662)
(664 663)
(665 664)
(666 665)
(667 666)
(668 667)
(669 668)
(670 669)
(671 670)
(672 671)
(673 672)
(674 673)
(675 674)
(676 675)
(677 676)
(678 677)
(679 678)
(680 679)
(681 680)
(682 681)
(683 682)
(684 683)
(685 684)
(686 685)
(687 686)
(688 687)
(689 688)
(690 689)
(691 690)
(692 691)
(693 692)
(694 693)
(695 694)
(597 695)
(9 696)
(697 10)
(698 697)
(699 698)
(700 699)
(701 700)
(702 701)
(703 702)
(704 703)
(705 704)
(706 705)
(707 706)
(708 707)
(709 708)
(710 709)
(711 710)
(712 711)
(713 712)
(714 713)
(715 714)
(716 715)
(717 716)
(718 717)
(719 718)
(720 719)
(721 720)
(722 721)
(723 722)
(724 723)
(725 724)
(726 725)
(727 726)
(728 727)
(729 728)
(730 729)
(731 730)
(732 731)
(733 732)
(734 733)
(735 734)
(736 735)
(737 736)
(738 737)
(739 738)
(740 739)
(741 740)
(742 741)
(743 742)
(744 743)
(745 744)
(746 745)
(747 746)
(748 747)
(749 748)
(750 749)
(751 750)
(752 751)
(753 752)
(754 753)
(755 754)
(756 755)
(757 756)
(758 757)
(759 758)
(760 759)
(761 760)
(762 761)
(763 762)
(764 763)
(765 764)
(766 765)
(767 766)
(768 767)
(769 768)
(770 769)
(771 770)
(772 771)
(773 772)
(774 773)
(696 774)
(775 11)
(776 775)
(777 776)
(778 777)
(779 778)
(780 779)
(781 780)
(782 781)
(783 782)
(784 783)
(785 784)
(786 785)
(787 786)
(788 787)
(789 788)
(790 789)
(791 790)
(792 791)
(793 792)
(794 793)
(795 794)
(796 795)
(797 796)
(798 797)
(799 798)
(800 799)
(801 800)
(802 801)
(803 802)
(804 803)
(805 804)
(806 805)
(807 806)
(808 807)
(809 808)
(810 809)
(811 810)
(812 811)
(813 812)
(814 813)
(815 814)
(816 815)
(817 816)
(818 817)
(819 818)
(820 819)
(821 820)
(822 821)
(823 822)
(824 823)
(825 824)
(826 825)
(827 826)
(828 827)
(829 828)
(830 829)
(831 830)
(832 831)
(833 832)
(834 833)
(835 834)
(836 835)
(837 836)
(838 837)
(839 838)
(840 839)
(841 840)
(842 841)
(843 842)
(844 843)
(845 844)
(846 845)
(847 846)
(848 847)
(849 848)
(850 849)
(851 850)
(852 851)
(853 852)
(9 853)
(12 2)
(13 12)
(14 13)
(15 14)
(16 15)
(17 16)
(18 17)
(19 18)
(20 19)
(3 20)
(4 21)
(21 22)
(22 23)
(23 24)
(24 25)
(25 26)
(26 27)
(27 28)
(28 29)
(29 30)
(30 31)
(31 32)
(32 33)
(33 34)
(34 35)
(35 36)
(36 37)
(37 38)
(38 39)
(39 5)
(2 40)
(40 41)
(41 42)
(42 43)
(43 44)
(44 45)
(45 46)
(46 47)
(47 48)
(48 49)
(49 50)
(50 51)
(51 52)
(52 53)
(53 54)
(54 55)
(55 56)
(56 57)
(57 58)
(58 6)
(5 59)
(59 60)
(60 61)
(61 62)
(62 63)
(63 64)
(64 65)
(65 66)
(66 67)
(67 8)
(68 4)
(69 68)
(70 69)
(71 70)
(72 71)
(73 72)
(74 73)
(75 74)
(76 75)
(10 76)
(77 10)
(78 77)
(79 78)
(80 79)
(81 80)
(82 81)
(83 82)
(84 83)
(85 84)
(86 85)
(87 86)
(88 87)
(89 88)
(90 89)
(91 90)
(92 91)
(93 92)
(94 93)
(95 94)
(8 95)
(96 3)
(97 96)
(98 97)
(99 98)
(100 99)
(101 100)
(102 101)
(103 102)
(104 103)
(105 104)
(106 105)
(107 106)
(108 107)
(109 108)
(110 109)
(111 110)
(112 111)
(113 112)
(114 113)
(11 114)
(6 115)
(115 116)
(116 117)
(117 118)
(118 119)
(119 120)
(120 121)
(121 122)
(122 123)
(123 11)
)

// concaveStart mixedStart nonFeatureStart
0 2 12
// internalStart flatStart openStart multipleStart
10 740 740 860
// normals

1586
(
(-1 0 0)
(-1 0 0)
(-1 0 0)
(-1 0 0)
(-1 0 0)
(-1 0 0)
(-1 0 0)
(-1 0 0)
(-1 0 0)
(-1 0 0)
(-0 0 1)
(-0 0 1)
(-0 0 1)
(-0 0 1)
(-0 0 1)
(-0 0 1)
(-0 0 1)
(-0 0 1)
(-0 0 1)
(-0 0 1)
(-0 0 1)
(-0 0 1)
(-0 0 1)
(-0 0 1)
(-0 0 1)
(-0 0 1)
(-0 0 1)
(-0 0 1)
(-0 0 1)
(-0 0 1)
(-0 0 1)
(-0 0 1)
(-0 0 1)
(-0 0 1)
(-0 0 1)
(-0 0 1)
(-0 0 1)
(-0 0 1)
(-0 0 1)
(-0 0 1)
(-0 0 1)
(-0 0 1)
(-0 0 1)
(-0 0 1)
(-0 0 1)
(-0 0 1)
(-0 0 1)
(-0 0 1)
(-0 0 1)
(-0 0 1)
(0 1 0)
(0 1 0)
(0 1 0)
(0 1 0)
(0 1 0)
(0 1 0)
(0 1 0)
(0 1 0)
(0 1 0)
(0 1 0)
(-0 -1 0)
(-0 -1 0)
(-0 -1 0)
(-0 -1 0)
(-0 -1 0)
(-0 -1 0)
(-0 -1 0)
(-0 -1 0)
(-0 -1 0)
(-0 -1 0)
(0 0 -1)
(0 0 -1)
(0 0 -1)
(0 0 -1)
(0 0 -1)
(0 0 -1)
(0 0 -1)
(0 0 -1)
(0 0 -1)
(0 0 -1)
(0 0 -1)
(0 0 -1)
(0 0 -1)
(0 0 -1)
(0 0 -1)
(0 0 -1)
(0 0 -1)
(0 0 -1)
(0 0 -1)
(0 0 -1)
(0 0 -1)
(0 0 -1)
(0 0 -1)
(0 0 -1)
(0 0 -1)
(0 0 -1)
(0 0 -1)
(0 0 -1)
(0 0 -1)
(0 0 -1)
(0 0 -1)
(0 0 -1)
(0 0 -1)
(0 0 -1)
(0 0 -1)
(0 0 -1)
(0 0 -1)
(0 0 -1)
(0 0 -1)
(0 0 -1)
(1 0 -0)
(1 0 -0)
(1 0 -0)
(1 0 -0)
(1 0 -0)
(1 0 -0)
(1 0 -0)
(1 0 -0)
(1 0 -0)
(1 0 -0)
(0 -1 0)
(1 0 0)
(0 -1 0)
(1 0 0)
(0 -1 0)
(1 0 0)
(0 -1 0)
(1 0 0)
(0 -1 0)
(1 0 0)
(0 -1 0)
(1 0 0)
(0 -1 0)
(1 0 0)
(0 -1 0)
(1 0 0)
(0 -1 0)
(1 0 0)
(0 -1 0)
(1 0 0)
(-1 0 0)
(0 0 1)
(-0 1 0)
(-1 0 0)
(-0 1 0)
(-1 0 0)
(-0 1 0)
(-1 0 0)
(-0 1 0)
(-1 0 0)
(-0 1 0)
(-1 0 0)
(-0 1 0)
(-1 0 0)
(-0 1 0)
(-1 0 0)
(-0 1 0)
(-1 0 0)
(-0 1 0)
(-1 0 0)
(-0 1 0)
(-1 0 0)
(0 0 -1)
(-1 0 0)
(0 0 1)
(0 0 -1)
(-1 0 0)
(0 0 1)
(-1 0 0)
(0 0 -1)
(-1 0 0)
(0 0 1)
(-1 0 0)
(0 0 -1)
(-1 0 0)
(0 0 1)
(-1 0 0)
(0 0 -1)
(-1 0 0)
(0 0 1)
(-1 0 0)
(0 0 -1)
(-1 0 0)
(0 0 1)
(-1 0 0)
(0 0 -1)
(-1 0 0)
(0 0 1)
(-1 0 0)
(0 0 -1)
(-1 0 0)
(0 0 1)
(-1 0 0)
(0 0 -1)
(-1 0 0)
(0 0 1)
(-1 0 0)
(0 0 -1)
(-1 0 0)
(0 0 1)
(-1 0 0)
(0 0 -1)
(-1 0 0)
(0 0 1)
(-1 0 0)
(0 0 -1)
(-1 0 0)
(0 0 1)
(-1 0 0)
(0 0 -1)
(-1 0 0)
(0 0 1)
(-1 0 0)
(0 0 -1)
(-1 0 0)
(0 0 1)
(-1 0 0)
(0 0 -1)
(-1 0 0)
(0 0 1)
(-1 0 0)
(0 0 -1)
(-1 0 0)
(0 0 1)
(-1 0 0)
(0 0 -1)
(-1 0 0)
(0 0 1)
(-1 0 0)
(0 0 -1)
(-1 0 0)
(0 0 1)
(-1 0 0)
(0 0 -1)
(-1 0 0)
(0 0 1)
(-1 0 0)
(0 0 -1)
(-1 0 0)
(0 0 1)
(-1 0 0)
(0 0 -1)
(-1 0 0)
(0 0 1)
(-1 0 0)
(0 0 -1)
(-1 0 0)
(0 0 1)
(-1 0 0)
(0 0 -1)
(-1 0 0)
(0 0 1)
(-1 0 0)
(0 0 -1)
(-1 0 0)
(0 0 1)
(-1 0 0)
(0 0 -1)
(-1 0 0)
(0 0 1)
(-1 0 0)
(0 0 -1)
(-1 0 0)
(0 0 1)
(-1 0 0)
(0 0 -1)
(-1 0 0)
(0 0 1)
(-1 0 0)
(0 0 -1)
(-1 0 0)
(0 0 1)
(-1 0 0)
(0 0 -1)
(-1 0 0)
(0 0 1)
(-1 0 0)
(0 0 -1)
(-1 0 0)
(0 0 1)
(-1 0 0)
(0 0 -1)
(-1 0 0)
(0 0 1)
(-1 0 0)
(0 0 -1)
(-1 0 0)
(0 0 1)
(-1 0 0)
(0 0 -1)
(-1 0 0)
(0 0 1)
(-1 0 0)
(0 0 -1)
(-1 0 0)
(0 0 1)
(-1 0 0)
(0 0 -1)
(-1 0 0)
(0 0 1)
(-1 0 0)
(0 0 -1)
(-1 0 0)
(0 0 1)
(-1 0 0)
(0 0 -1)
(-1 0 0)
(0 0 1)
(-1 0 0)
(0 0 -1)
(-1 0 0)
(0 0 1)
(-1 0 0)
(0 0 -1)
(-1 0 0)
(0 0 1)
(-1 0 0)
(0 0 -1)
(-1 0 0)
(0 0 1)
(-1 0 0)
(0 0 -1)
(-1 0 0)
(0 0 1)
(-1 0 0)
(0 0 -1)
(-1 0 0)
(0 0 1)
(-1 0 0)
(0 0 -1)
(-1 0 0)
(0 0 1)
(-1 0 0)
(0 0 -1)
(-1 0 0)
(0 0 1)
(-1 0 0)
(0 0 -1)
(-1 0 0)
(0 0 1)
(-1 0 0)
(0 0 -1)
(-1 0 0)
(0 0 1)
(-1 0 0)
(0 0 -1)
(-1 0 0)
(0 0 1)
(-1 0 0)
(0 0 -1)
(-1 0 0)
(0 0 1)
(-1 0 0)
(0 0 -1)
(-1 0 0)
(0 0 1)
(-1 0 0)
(0 0 -1)
(-1 0 0)
(0 0 1)
(-1 0 0)
(0 0 -1)
(-1 0 0)
(0 0 1)
(-1 0 0)
(0 0 -1)
(-1 0 0)
(0 0 1)
(-1 0 0)
(0 0 -1)
(-1 0 0)
(0 0 1)
(-1 0 0)
(0 0 -1)
(-1 0 0)
(0 0 1)
(-1 0 0)
(0 0 -1)
(-1 0 0)
(0 0 1)
(-1 0 0)
(0 0 -1)
(-1 0 0)
(0 0 1)
(-1 0 0)
(0 0 -1)
(-1 0 0)
(0 0 1)
(-1 0 0)
(0 0 -1)
(-1 0 0)
(0 0 1)
(-1 0 0)
(0 0 -1)
(-1 0 0)
(0 0 1)
(-1 0 0)
(0 0 -1)
(-1 0 0)
(0 0 1)
(-1 0 0)
(0 0 -1)
(-1 0 0)
(0 0 1)
(-1 0 0)
(0 0 -1)
(-1 0 0)
(0 0 1)
(-1 0 0)
(0 0 -1)
(-1 0 0)
(0 0 1)
(-1 0 0)
(0 0 -1)
(-1 0 0)
(0 0 1)
(-1 0 0)
(0 0 -1)
(-1 0 0)
(0 0 1)
(-1 0 0)
(0 0 -1)
(-1 0 0)
(0 0 1)
(-1 0 0)
(0 0 -1)
(-1 0 0)
(0 0 1)
(-1 0 0)
(0 0 -1)
(-1 0 0)
(0 0 1)
(-1 0 0)
(0 0 -1)
(-1 0 0)
(0 0 1)
(-1 0 0)
(0 0 -1)
(-1 0 0)
(0 0 1)
(-1 0 0)
(0 0 -1)
(-1 0 0)
(0 0 1)
(-1 0 0)
(0 0 -1)
(-1 0 0)
(0 0 1)
(-1 0 0)
(0 0 -1)
(-1 0 0)
(0 0 1)
(-1 0 0)
(0 0 -1)
(-1 0 0)
(0 0 1)
(-1 0 0)
(0 0 -1)
(-1 0 0)
(0 0 1)
(-1 0 0)
(0 0 -1)
(-1 0 0)
(0 0 1)
(-1 0 0)
(0 0 -1)
(-1 0 0)
(0 0 1)
(-1 0 0)
(0 0 -1)
(-1 0 0)
(0 0 1)
(-1 0 0)
(0 0 -1)
(-1 0 0)
(0 0 1)
(-1 0 0)
(0 0 -1)
(-1 0 0)
(0 0 1)
(-1 0 0)
(0 0 -1)
(-1 0 0)
(0 0 1)
(-1 0 0)
(0 0 -1)
(-1 0 0)
(0 0 1)
(-1 0 0)
(0 0 -1)
(-1 0 0)
(0 0 1)
(-1 0 0)
(0 0 -1)
(-1 0 0)
(0 0 1)
(-1 0 0)
(0 0 -1)
(-1 0 0)
(0 0 1)
(-1 0 0)
(0 0 -1)
(-1 0 0)
(0 0 1)
(-1 0 0)
(0 0 -1)
(-1 0 0)
(0 0 1)
(-1 0 0)
(0 0 -1)
(-1 0 0)
(0 0 1)
(-1 0 0)
(0 0 -1)
(-1 0 0)
(0 0 1)
(-1 0 0)
(0 0 -1)
(-1 0 0)
(0 0 1)
(-1 0 0)
(0 0 -1)
(-1 0 0)
(0 0 1)
(-1 0 0)
(0 0 -1)
(-1 0 0)
(0 0 1)
(-1 0 0)
(0 0 -1)
(-1 0 0)
(0 0 1)
(-1 0 0)
(0 0 -1)
(-1 0 0)
(0 0 1)
(-1 0 0)
(0 0 -1)
(-1 0 0)
(0 0 1)
(-1 0 0)
(0 0 -1)
(-1 0 0)
(0 0 1)
(-1 0 0)
(0 0 -1)
(-1 0 0)
(0 0 1)
(-1 0 0)
(0 0 -1)
(-1 0 0)
(0 0 1)
(-1 0 0)
(0 0 -1)
(-1 0 0)
(0 0 1)
(-1 0 0)
(0 0 -1)
(0 -1 0)
(0 0 1)
(0 1 0)
(0 0 1)
(0 1 0)
(0 0 1)
(0 1 0)
(0 0 1)
(0 1 0)
(0 0 1)
(0 1 0)
(0 0 1)
(0 1 0)
(0 0 1)
(0 1 0)
(0 0 1)
(0 1 0)
(0 0 1)
(0 1 0)
(0 0 1)
(0 1 0)
(0 0 1)
(0 1 0)
(0 0 1)
(0 1 0)
(0 0 1)
(0 1 0)
(0 0 1)
(0 1 0)
(0 0 1)
(0 1 0)
(0 0 1)
(0 1 0)
(0 0 1)
(0 1 0)
(0 0 1)
(0 1 0)
(0 0 1)
(0 1 0)
(-0 0 1)
(1 0 -0)
(-0 0 1)
(1 0 -0)
(-0 0 1)
(1 0 -0)
(-0 0 1)
(1 0 -0)
(-0 0 1)
(1 0 -0)
(-0 0 1)
(1 0 -0)
(-0 0 1)
(1 0 -0)
(-0 0 1)
(1 0 -0)
(-0 0 1)
(1 0 -0)
(-0 0 1)
(1 0 -0)
(-0 0 1)
(1 0 -0)
(-0 0 1)
(1 0 -0)
(-0 0 1)
(1 0 -0)
(-0 0 1)
(1 0 -0)
(-0 0 1)
(1 0 -0)
(-0 0 1)
(1 0 -0)
(-0 0 1)
(1 0 -0)
(-0 0 1)
(1 0 -0)
(-0 0 1)
(1 0 -0)
(-0 0 1)
(1 0 -0)
(-0 0 1)
(1 0 -0)
(-0 0 1)
(1 0 -0)
(-0 0 1)
(1 0 -0)
(-0 0 1)
(1 0 -0)
(-0 0 1)
(1 0 -0)
(-0 0 1)
(1 0 -0)
(-0 0 1)
(1 0 -0)
(-0 0 1)
(1 0 -0)
(-0 0 1)
(1 0 -0)
(-0 0 1)
(1 0 -0)
(-0 0 1)
(1 0 -0)
(-0 0 1)
(1 0 -0)
(-0 0 1)
(1 0 -0)
(-0 0 1)
(1 0 -0)
(-0 0 1)
(1 0 -0)
(-0 0 1)
(1 0 -0)
(-0 0 1)
(1 0 -0)
(-0 0 1)
(1 0 -0)
(-0 0 1)
(1 0 -0)
(-0 0 1)
(1 0 -0)
(-0 0 1)
(1 0 -0)
(-0 0 1)
(1 0 -0)
(-0 0 1)
(1 0 -0)
(-0 0 1)
(1 0 -0)
(-0 0 1)
(1 0 -0)
(-0 0 1)
(1 0 -0)
(-0 0 1)
(1 0 -0)
(-0 0 1)
(1 0 -0)
(-0 0 1)
(1 0 -0)
(-0 0 1)
(1 0 -0)
(-0 0 1)
(1 0 -0)
(-0 0 1)
(1 0 -0)
(-0 0 1)
(1 0 -0)
(-0 0 1)
(1 0 -0)
(-0 0 1)
(1 0 -0)
(-0 0 1)
(1 0 -0)
(-0 0 1)
(1 0 -0)
(-0 0 1)
(1 0 -0)
(-0 0 1)
(1 0 -0)
(-0 0 1)
(1 0 -0)
(-0 0 1)
(1 0 -0)
(-0 0 1)
(1 0 -0)
(-0 0 1)
(1 0 -0)
(-0 0 1)
(1 0 -0)
(-0 0 1)
(1 0 -0)
(-0 0 1)
(1 0 -0)
(-0 0 1)
(1 0 -0)
(-0 0 1)
(1 0 -0)
(-0 0 1)
(1 0 -0)
(-0 0 1)
(1 0 -0)
(-0 0 1)
(1 0 -0)
(-0 0 1)
(1 0 -0)
(-0 0 1)
(1 0 -0)
(-0 0 1)
(1 0 -0)
(-0 0 1)
(1 0 -0)
(-0 0 1)
(1 0 -0)
(-0 0 1)
(1 0 -0)
(-0 0 1)
(1 0 -0)
(-0 0 1)
(1 0 -0)
(0 0 1)
(0 1 0)
(-0 0 1)
(0 0 1)
(0 1 0)
(-0 0 1)
(0 -1 0)
(0 0 1)
(0 1 0)
(-0 0 1)
(0 -1 0)
(0 0 1)
(0 1 0)
(-0 0 1)
(0 -1 0)
(0 0 1)
(0 1 0)
(-0 0 1)
(0 -1 0)
(0 0 1)
(0 1 0)
(-0 0 1)
(0 -1 0)
(0 0 1)
(0 1 0)
(-0 0 1)
(0 -1 0)
(0 0 1)
(0 1 0)
(-0 0 1)
(0 -1 0)
(0 0 1)
(0 1 0)
(-0 0 1)
(0 -1 0)
(0 0 1)
(0 1 0)
(-0 0 1)
(0 -1 0)
(0 0 1)
(0 1 0)
(-0 0 1)
(0 -1 0)
(0 0 1)
(0 1 0)
(-0 0 1)
(0 -1 0)
(0 0 1)
(0 1 0)