/*--------------------------------*- C++ -*----------------------------------*\
  =========                 |
  \\      /  F ield         | OpenFOAM: The Open Source CFD Toolbox
   \\    /   O peration     | Website:  https://openfoam.org
    \\  /    A nd           | Version:  9
     \\/     M anipulation  |
\*---------------------------------------------------------------------------*/
FoamFile
{
    format      ascii;
    class       dictionary;
    object      blockMeshDict;
    version     2;
}
// * * * * * * * * * * * * * * * * * * * * * * * * * * * * * * * * * * * * * //

convertToMeters 1;

vertices
(
    (0.0  0 0)
    (0.15 0 0)
    (0.15 1 0)
    (0.0  1 0)
    (0.0  0 0.04)
    (0.15 0 0.04)
    (0.15 1 0.04)
    (0.0  1 0.04)
);

blocks
(
    hex (0 1 2 3 5 5 6 7) (45 210 12) simpleGrading (1 1 1)
);

edges
(
);

boundary
(
    outlet
    {
        type patch;
        faces
        (
            (3 7 6 2)
        );
    }

    sideWalls
    {
        type wall;
        faces
        (
            (0 4 7 3)
            (0 3 2 1)
            (2 6 5 1)
            (4 5 6 7)
        );
    }

    inlet
    {
        type patch;
        faces
        (
            (1 5 4 0)
        );
    }

);

mergePatchPairs
(
);

// ************************************************************************* //
