/*--------------------------------*- C++ -*----------------------------------*\
| =========                 |                                                 |
| \\      /  F ield         | OpenFOAM: The Open Source CFD Toolbox           |
|  \\    /   O peration     | Version:  v2412                                 |
|   \\  /    A nd           | Website:  www.openfoam.com                      |
|    \\/     M anipulation  |                                                 |
\*---------------------------------------------------------------------------*/
FoamFile
{
    format      ascii;
    class       dictionary;
    object      blockMeshDict;
}
// * * * * * * * * * * * * * * * * * * * * * * * * * * * * * * * * * * * * * //

convertToMeters 1;

vertices
(
    (0.0  0 0)
    (0.15 0 0)
    (0.15 0.7 0)
    (0.0  0.7 0)
    (0.0  0 0.04)
    (0.15 0 0.04)
    (0.15 0.7 0.04)
    (0.0  0.7 0.04)
);

blocks
(
    hex (0 1 2 3 4 5 6 7) (30 140 8) simpleGrading (1 1 1)
);

edges
(
);

boundary
(
    outlet
    {
        type patch;
        faces
        (
            (3 7 6 2)
        );
    }
    fixedWalls
    {
        type wall;
        faces
        (
            (0 4 7 3)
            (2 6 5 1)
            (0 3 2 1)
            (4 5 6 7)
        );
    }

    inlet
    {
        type patch;
        faces
        (
            (1 5 4 0)
        );
    }
    
);

mergePatchPairs
(
);

// ************************************************************************* //
